/*--------------------------------*- C++ -*----------------------------------*\
| =========                 |                                                 |
| \\      /  F ield         | OpenFOAM: The Open Source CFD Toolbox           |
|  \\    /   O peration     | Version:  2.0.1                                 |
|   \\  /    A nd           | Web:      www.OpenFOAM.com                      |
|    \\/     M anipulation  |                                                 |
\*---------------------------------------------------------------------------*/
FoamFile
{
    version     2.0;
    format      ascii;
    class       volScalarField;
    object      muSgs;
}
// * * * * * * * * * * * * * * * * * * * * * * * * * * * * * * * * * * * * * //

dimensions      [1 -1 -1 0 0 0 0];

internalField   uniform 0;

boundaryField
{
    axis
    {
        type            zeroGradient;
    }
    fuel
    {
        type            calculated;
    }
    pilot
    {
        type            calculated;
    }
    coflow
    {
        type            calculated;
    }
    inletwall
    {
        type            calculated;
    }
    outlet
    {
        type            calculated;
    }
    front
    {
        type            zeroGradient;
    }
    back
    {
        type            zeroGradient;
    }
    atmosphere
    {
        type            zeroGradient;
    }
}

// ************************************************************************* //
