/*--------------------------------*- C++ -*----------------------------------*\
| =========                 |                                                 |
| \\      /  F ield         | OpenFOAM: The Open Source CFD Toolbox           |
|  \\    /   O peration     | Version:  2.3.x                                 |
|   \\  /    A nd           | Web:      www.OpenFOAM.org                      |
|    \\/     M anipulation  |                                                 |
\*---------------------------------------------------------------------------*/
FoamFile
{
    version     2.0;
    format      ascii;
    class       volScalarField;
    location    "0";
    object      muSgs;
}
// * * * * * * * * * * * * * * * * * * * * * * * * * * * * * * * * * * * * * //

dimensions      [1 -1 -1 0 0 0 0];

internalField   uniform 0;

boundaryField
{
    AIR1
    {
        type            calculated;
    }
    AIR2
    {
        type            calculated;
    }
    AIR3
    {
        type            calculated;
    }
    AIR4
    {
        type            calculated;
    }
    AIR
    {
        type            calculated;
    }
    WALL_SWIRL_IN
    {
        type            mutUSpaldingWallFunction;
    }
    WALL_SWIRL_OUT
    {
        type            mutUSpaldingWallFunction;
    }
    WALL_TANGENTIAL
    {
        type            mutUSpaldingWallFunction;
    }
    WALL_AIR_IN
    {
        type            mutUSpaldingWallFunction;
    }
    WALL_AIR_OUT
    {
        type            mutUSpaldingWallFunction;
    }
    WALL_TUBE_LOW_IN
    {
        type            mutUSpaldingWallFunction;
    }
    WALL_TUBE_LOW_OUT
    {
        type            mutUSpaldingWallFunction;
    }
    WALL_TUBE_UP_IN
    {
        type            mutUSpaldingWallFunction;
    }
    WALL_TUBE_UP
    {
        type            mutUSpaldingWallFunction;
    }
    WALL_TUBE_EDGE
    {
        type            mutUSpaldingWallFunction;
    }
    WALL_QUARL_IN
    {
        type            mutUSpaldingWallFunction;
    }
    WALL_QUARL_OUT
    {
        type            mutUSpaldingWallFunction;
    }
    OUT
    {
        type            inletOutlet;
        inletValue      uniform 0;
        value           uniform 0;
    }
    ATOM
    {
        type            inletOutlet;
        inletValue      uniform 0;
        value           uniform 0;
    }
    FUEL
    {
        type            calculated;
    }
}

// ************************************************************************* //
