FoamFile
{
    version        2.0;
    format         ascii;
    class          vectorAverageField;
    object         values;
}
// * * * * * * * * * * * * * * * * * * * * * * * * * * * * * * //
(0.0 0.0 8.76)
5761
(
(-0.00377 -0.0160653 16.0766)
(-0.00196971 -0.0159158 16.0544)
(-0.00200903 -0.0158332 16.0595)
(-0.00205339 -0.015762 16.0643)
(-0.00210253 -0.0157063 16.0688)
(-0.00215972 -0.0156655 16.0729)
(-0.00222613 -0.0156396 16.0766)
(-0.00239254 -0.0156271 16.0827)
(-0.00249349 -0.0156364 16.085)
(-0.00260548 -0.0156527 16.0869)
(-0.00272681 -0.0156735 16.0884)
(-0.00285488 -0.0156963 16.0894)
(-0.00298642 -0.0157194 16.09)
(-0.00311766 -0.0157417 16.0901)
(-0.00324466 -0.0157629 16.0899)
(-0.00336359 -0.0157835 16.0893)
(-0.003471 -0.0158047 16.0884)
(-0.00356407 -0.0158285 16.0871)
(-0.00364073 -0.0158569 16.0856)
(-0.00369978 -0.0158925 16.0837)
(-0.00374082 -0.0159374 16.0816)
(-0.0017983 -0.0168126 16.0058)
(-0.0017647 -0.0166783 16.0133)
(-0.00176729 -0.0165989 16.0177)
(-0.00177973 -0.0165124 16.0225)
(-0.00180099 -0.0164183 16.0276)
(-0.0018287 -0.0163184 16.033)
(-0.00186035 -0.0162153 16.0384)
(-0.00189552 -0.0161109 16.0438)
(-0.00196971 -0.0159158 16.0544)
(-0.00377 -0.0160653 16.0766)
(-0.00376123 -0.0161515 16.0738)
(-0.00374252 -0.0162503 16.0707)
(-0.00371564 -0.0163611 16.0675)
(-0.00368435 -0.0164794 16.064)
(-0.00365044 -0.0166018 16.0603)
(-0.00361511 -0.0167242 16.0564)
(-0.00357878 -0.0168425 16.0523)
(-0.00354115 -0.0169528 16.048)
(-0.00350121 -0.0170515 16.0436)
(-0.00345744 -0.0171358 16.0391)
(-0.00340802 -0.0172036 16.0346)
(-0.00335102 -0.0172537 16.03)
(-0.00328466 -0.0172862 16.0255)
(-0.00311895 -0.0173019 16.0169)
(-0.00301875 -0.017289 16.013)
(-0.00290778 -0.0172656 16.0093)
(-0.00278772 -0.0172347 16.0061)
(-0.00266108 -0.0171988 16.0033)
(-0.00253111 -0.0171603 16.0011)
(-0.00240156 -0.0171209 15.9994)
(-0.00227644 -0.0170817 15.9983)
(-0.00215977 -0.0170428 15.9979)
(-0.00205515 -0.0170035 15.9981)
(-0.00196549 -0.0169625 15.9991)
(-0.00189274 -0.0169182 16.0007)
(-0.00183755 -0.0168683 16.0029)
(-0.00230346 -0.0156274 16.0799)
(-0.00377 -0.0160653 16.0766)
(-0.00177541 -0.0167485 16.0093)
(-0.00320757 -0.0173017 16.0211)
(-0.000296979 -0.0149545 16.0888)
(-0.000495075 -0.0147695 16.1013)
(-0.000706734 -0.0146031 16.1123)
(-0.00117049 -0.0143319 16.1293)
(-0.00142221 -0.0142283 16.1354)
(-0.00253392 -0.0140192 16.1444)
(-0.00282568 -0.0140148 16.1435)
(-0.00311582 -0.0140288 16.1417)
(-0.00339993 -0.0140611 16.1392)
(-0.00367347 -0.0141126 16.1362)
(-0.00417133 -0.0142771 16.1289)
(-0.00438793 -0.0143928 16.1249)
(-0.00457887 -0.0145326 16.1209)
(-0.00487592 -0.0148885 16.1126)
(-0.00505495 -0.0153464 16.1039)
(0.000544124 -0.0172405 15.9209)
(0.000621395 -0.0170687 15.9324)
(0.00055748 -0.0162675 15.9929)
(0.000464621 -0.0160445 16.0099)
(0.000348234 -0.0158177 16.027)
(0.000211579 -0.0155912 16.0437)
(-0.000112637 -0.0151554 16.0749)
(-0.00511405 -0.0161904 16.089)
(-0.00508324 -0.0164959 16.083)
(-0.00502884 -0.0168031 16.0763)
(-0.00495121 -0.0171048 16.0689)
(-0.00485025 -0.017394 16.0606)
(-0.00457629 -0.0179082 16.0413)
(-0.00440183 -0.0181216 16.0303)
(-0.00420153 -0.0183001 16.0185)
(-0.00372289 -0.0185427 15.9931)
(-0.00344582 -0.0186057 15.9799)
(-0.00214133 -0.0185188 15.9302)
(-0.00178793 -0.018433 15.92)
(-0.00143559 -0.0183311 15.9114)
(-0.00109147 -0.0182175 15.9046)
(-0.000762951 -0.0180955 15.8998)
(-0.000180738 -0.0178349 15.8972)
(6.09284e-05 -0.0176971 15.8995)
(0.000263709 -0.0175531 15.9043)
(-0.000112637 -0.0151554 16.0749)
(-0.000931891 -0.0144569 16.1217)
(-0.00168622 -0.014146 16.1398)
(-0.00196105 -0.0140842 16.1426)
(-0.00224456 -0.0140422 16.1441)
(-0.00393198 -0.0141841 16.1327)
(-0.00474198 -0.0146976 16.1168)
(0.00065854 -0.0168852 15.9456)
(0.000658091 -0.0166899 15.9604)
(0.000623222 -0.0164835 15.9762)
(-0.00505495 -0.0153464 16.1039)
(-0.00510127 -0.0156103 16.0993)
(-0.00512049 -0.0158932 16.0943)
(-0.00472551 -0.0176639 16.0514)
(-0.00397512 -0.0184409 16.006)
(-0.00314578 -0.0186314 15.9668)
(-0.00282561 -0.0186228 15.9539)
(-0.00248917 -0.0185837 15.9415)
(-0.000457193 -0.0179677 15.8973)
(0.000425062 -0.0174015 15.9115)
(-0.000395376 -0.0129509 16.1525)
(-0.00112934 -0.0125023 16.1674)
(-0.00300508 -0.011879 16.1544)
(-0.00550593 -0.0129009 16.0927)
(-0.00604025 -0.0140147 16.0817)
(0.00289898 -0.0164033 15.8093)
(0.00221907 -0.0153078 15.9607)
(-0.00631916 -0.0158945 16.0698)
(-0.00491336 -0.018595 15.9685)
(-0.00401568 -0.0186531 15.9215)
(-0.00103655 -0.0179325 15.8001)
(0.00269954 -0.016672 15.7688)
(0.00100729 -0.0140873 16.0796)
(0.000667115 -0.0137817 16.1031)
(0.00031904 -0.0134876 16.1232)
(-3.54455e-05 -0.0132095 16.1397)
(-0.000760209 -0.0127145 16.1617)
(-0.00150208 -0.0123164 16.1699)
(-0.00187777 -0.0121591 16.1694)
(-0.002255 -0.0120324 16.1663)
(-0.0026316 -0.0119383 16.1612)
(-0.0033726 -0.0118567 16.1464)
(-0.00373098 -0.0118737 16.1378)
(-0.00407686 -0.0119323 16.129)
(-0.00440679 -0.0120343 16.1203)
(-0.00471748 -0.0121815 16.1121)
(-0.0050059 -0.0123748 16.1047)
(-0.00526942 -0.0126148 16.0982)
(-0.00571388 -0.0132317 16.0882)
(0.00283993 -0.0165454 15.7869)
(0.00288221 -0.0162389 15.8353)
(0.00279705 -0.0160476 15.8644)
(0.00265208 -0.0158277 15.8955)
(0.00245642 -0.0155801 15.9279)
(0.00194856 -0.015016 15.993)
(0.00165236 -0.0147109 16.024)
(0.00100729 -0.0140873 16.0796)
(-0.00604025 -0.0140147 16.0817)
(-0.00615761 -0.0144571 16.0792)
(-0.00624382 -0.0149242 16.0766)
(-0.00629812 -0.0154068 16.0736)
(-0.00630485 -0.0163755 16.0646)
(-0.00625219 -0.0168374 16.0578)
(-0.00615745 -0.0172676 16.0489)
(-0.00601641 -0.0176545 16.0378)
(-0.0058248 -0.0179876 16.0241)
(-0.0055788 -0.0182588 16.0079)
(-0.0052755 -0.0184622 15.9893)
(-0.00449263 -0.0186575 15.9457)
(-0.00348723 -0.0185883 15.8963)
(-0.00291447 -0.0184723 15.8708)
(-0.00230695 -0.018316 15.8458)
(-0.00167645 -0.0181318 15.822)
(-0.000402127 -0.0177297 15.781)
(0.000211271 -0.0175336 15.7652)
(0.00078825 -0.0173516 15.7535)
(0.00131438 -0.0171877 15.7464)
(0.00177707 -0.0170423 15.7443)
(0.00216623 -0.0169121 15.7473)
(0.00247492 -0.0167913 15.7555)
(0.00183927 -0.0126648 16.0731)
(0.000393051 -0.0114928 16.152)
(-7.24416e-05 -0.0111333 16.166)
(-0.000530376 -0.0107966 16.174)
(-0.000982392 -0.0104866 16.1763)
(-0.0031632 -0.00949649 16.1255)
(-0.00399101 -0.00945185 16.0911)
(-0.00477251 -0.0096617 16.0586)
(-0.00581093 -0.0104892 16.0244)
(-0.00611139 -0.0109001 16.0184)
(-0.00638609 -0.0113739 16.0152)
(-0.00685478 -0.0124883 16.0159)
(0.00531724 -0.0149631 15.623)
(0.00530003 -0.0149678 15.6582)
(0.00378137 -0.0141564 15.8963)
(0.00282799 -0.0134559 15.9924)
(-0.00744561 -0.0151128 16.0291)
(-0.00752217 -0.0163862 16.0281)
(-0.00737645 -0.017429 16.0131)
(-0.00655252 -0.0182522 15.9558)
(-0.00607961 -0.0182898 15.9272)
(-0.0055003 -0.0182093 15.8944)
(-0.00481661 -0.0180202 15.8582)
(-0.000265583 -0.0161567 15.6626)
(0.00166681 -0.0154597 15.6018)
(0.00333292 -0.0150332 15.5664)
(0.00494622 -0.0149024 15.5748)
(0.00520226 -0.0149335 15.5949)
(0.00134939 -0.0122639 16.1054)
(0.000866977 -0.0118712 16.1318)
(-0.00142882 -0.0102079 16.1735)
(-0.00186974 -0.00996478 16.1662)
(-0.00230604 -0.00976187 16.1552)
(-0.0027375 -0.00960406 16.1414)
(-0.00358168 -0.0094442 16.1085)
(-0.00438884 -0.00952337 16.0742)
(-0.00513921 -0.00986861 16.0447)
(-0.00548618 -0.0101447 16.0332)
(0.00516407 -0.014928 15.6995)
(0.00492599 -0.0148302 15.7454)
(0.00460402 -0.0146678 15.7946)
(0.00421663 -0.0144411 15.8454)
(0.00331404 -0.0138238 15.9457)
(0.00183927 -0.0126648 16.0731)
(-0.00685478 -0.0124883 16.0159)
(-0.00704768 -0.0131129 16.0189)
(-0.00721189 -0.0137681 16.0226)
(-0.0073456 -0.0144401 16.0263)
(-0.00750686 -0.0157681 16.03)
(-0.00748231 -0.0169465 16.0227)
(-0.00719318 -0.0178158 15.9989)
(-0.0069216 -0.0180932 15.9798)
(-0.00403575 -0.0177385 15.8195)
(-0.00317027 -0.0173852 15.7793)
(-0.00223791 -0.0169855 15.7388)
(-0.00126102 -0.0165668 15.6995)
(0.000720075 -0.0157807 15.6296)
(0.00254635 -0.0152084 15.5804)
(0.00400489 -0.0149321 15.5606)
(0.00454598 -0.0148944 15.5633)
(0.00229809 -0.0110687 16.0563)
(0.00168169 -0.0106044 16.0963)
(0.00109483 -0.0101457 16.1272)
(0.000535908 -0.00969938 16.149)
(-0.000511478 -0.00886307 16.1661)
(-0.0010073 -0.00848284 16.1625)
(-0.00148937 -0.0081353 16.1519)
(-0.0019607 -0.00782587 16.1355)
(-0.00242355 -0.00756188 16.1143)
(-0.00287964 -0.00735198 16.0895)
(-0.00333008 -0.00720525 16.0624)
(-0.00377516 -0.0071303 16.0342)
(-0.00421425 -0.00713441 16.0061)
(-0.0046457 -0.00722297 15.9795)
(-0.005067 -0.00739918 15.9553)
(-0.00547499 -0.0076641 15.9348)
(-0.00586629 -0.00801688 15.9185)
(-0.00623776 -0.00845502 15.9072)
(-0.00691267 -0.0095705 15.9001)
(-0.00749299 -0.0109617 15.9119)
(0.00776538 -0.0124674 15.4382)
(0.00760881 -0.0127633 15.4878)
(0.00728873 -0.0129801 15.5462)
(0.00683505 -0.0130887 15.6111)
(0.00627948 -0.0130751 15.6803)
(0.0056531 -0.0129399 15.7512)
(0.0049844 -0.0126957 15.8215)
(0.00429781 -0.0123631 15.889)
(0.00361274 -0.0119659 15.9517)
(0.00229809 -0.0110687 16.0563)
(-0.00749299 -0.0109617 15.9119)
(-0.00774917 -0.0117371 15.9231)
(-0.00798343 -0.0125477 15.9363)
(-0.00819473 -0.0133757 15.9502)
(-0.00837953 -0.0142 15.9632)
(-0.00853092 -0.0149956 15.974)
(-0.00863791 -0.0157347 15.9809)
(-0.00868523 -0.0163876 15.9827)
(-0.00865373 -0.0169242 15.9781)
(-0.00852183 -0.0173162 15.9662)
(-0.00826772 -0.0175406 15.9465)
(-0.00787189 -0.0175828 15.9189)
(-0.00660167 -0.0171129 15.8415)
(-0.00571839 -0.0166246 15.7932)
(-0.00467843 -0.0160017 15.7401)
(-0.00350046 -0.0152824 15.6838)
(-0.00221263 -0.014512 15.626)
(-0.000851394 -0.0137402 15.569)
(0.000540474 -0.0130173 15.5146)
(0.00191643 -0.0123897 15.4652)
(0.00322915 -0.0118957 15.4228)
(0.00443352 -0.0115619 15.3893)
(0.00548959 -0.0113997 15.3665)
(0.00636502 -0.0114041 15.3555)
(0.00703698 -0.0115537 15.3572)
(0.00749336 -0.0118124 15.3718)
(1.73955e-06 -0.00927036 16.1618)
(-0.00658701 -0.00897464 15.9011)
(-0.00731937 -0.0174381 15.8837)
(0.00773304 -0.012134 15.3991)
(0.00243677 -0.00936511 16.0288)
(-0.00391867 -0.00503138 15.929)
(-0.00530118 -0.00539941 15.8173)
(0.00491901 -0.0107248 15.8247)
(-0.00936197 -0.0141982 15.8975)
(-0.00980394 -0.0162808 15.9316)
(0.00320897 -0.00773309 15.2917)
(0.00778841 -0.00642595 15.1522)
(0.0017274 -0.0088644 16.0744)
(0.00107476 -0.00836973 16.1078)
(0.000471952 -0.00788817 16.129)
(-8.92301e-05 -0.00742382 16.1385)
(-0.000617108 -0.00698036 16.1371)
(-0.0011196 -0.00656151 16.1259)
(-0.00160362 -0.00617197 16.1062)
(-0.00207488 -0.00581968 16.0793)
(-0.00253831 -0.00551608 16.0466)
(-0.00299812 -0.00527464 16.0095)
(-0.00345762 -0.00510903 15.9698)
(-0.00438129 -0.00505085 15.8888)
(-0.00484345 -0.00517292 15.8511)
(-0.00574916 -0.005729 15.7891)
(-0.00618161 -0.0061581 15.7674)
(-0.00659335 -0.00668175 15.7533)
(-0.00698079 -0.00729416 15.7472)
(-0.00734258 -0.00798892 15.7491)
(-0.00799567 -0.00959433 15.7746)
(0.0101664 -0.00916001 15.239)
(0.00980792 -0.00989578 15.3042)
(0.00924098 -0.0105059 15.381)
(0.00851274 -0.0109369 15.4663)
(0.00767224 -0.0111628 15.5568)
(0.00676648 -0.0111848 15.6488)
(0.00583732 -0.0110264 15.7392)
(0.00403683 -0.0103223 15.9027)
(0.00243677 -0.00936511 16.0288)
(-0.00799567 -0.00959433 15.7746)
(-0.00829449 -0.0104842 15.7959)
(-0.00858038 -0.0114126 15.8209)
(-0.00885552 -0.0123593 15.8476)
(-0.00911837 -0.0132983 15.8739)
(-0.00957268 -0.0150225 15.9163)
(-0.00972944 -0.0157307 15.9283)
(-0.00976205 -0.0166318 15.9248)
(-0.00956721 -0.0167488 15.907)
(-0.00918478 -0.016608 15.8778)
(-0.0085865 -0.016201 15.8374)
(-0.00775403 -0.0155366 15.7866)
(-0.0066818 -0.0146412 15.7265)
(-0.00537921 -0.0135588 15.6589)
(-0.00387165 -0.0123487 15.5858)
(-0.00220008 -0.0110824 15.5097)
(-0.000418875 -0.00983865 15.4333)
(0.00140746 -0.00869738 15.3596)
(0.00491528 -0.00700794 15.2327)
(0.00646064 -0.00656553 15.1854)
(0.0088546 -0.00658271 15.1351)
(0.00963022 -0.00700201 15.1351)
(0.0101025 -0.00762508 15.1529)
(0.0102751 -0.0083739 15.1879)
(0.00084217 -0.00662644 16.0718)
(-0.00129409 -0.00479795 16.067)
(-0.0064679 -0.00465794 15.586)
(-0.0083904 -0.00844949 15.6085)
(0.0118224 -0.00645428 15.1118)
(-0.010756 -0.0157795 15.8594)
(-0.00764571 -0.0122123 15.6571)
(0.0122371 -0.00144108 14.9014)
(0.00228392 -0.00763289 15.9892)
(0.00151971 -0.00712483 16.0382)
(0.000236733 -0.00614379 16.0904)
(-0.000311799 -0.00567814 16.0949)
(-0.000817864 -0.00522918 16.0866)
(-0.00175097 -0.00439012 16.0374)
(-0.00219739 -0.00401747 15.9994)
(-0.0026414 -0.00369681 15.9547)
(-0.00309017 -0.00344728 15.9049)
(-0.00354942 -0.00328727 15.8519)
(-0.00402239 -0.00323159 15.7977)
(-0.00450894 -0.00328962 15.7446)
(-0.00500513 -0.0034648 15.6948)
(-0.00550357 -0.00375527 15.6505)
(-0.00599457 -0.00415547 15.6136)
(-0.0069148 -0.00525486 15.5687)
(-0.00732962 -0.00593903 15.5626)
(-0.007711 -0.00670397 15.5677)
(0.0124356 -0.00514716 15.0299)
(0.0109579 -0.00758508 15.2082)
(0.0099094 -0.00845056 15.3148)
(0.00874621 -0.00900561 15.4272)
(0.00753408 -0.00925054 15.5406)
(0.00633025 -0.00922308 15.6507)
(0.00517966 -0.00898397 15.7534)
(0.00411297 -0.00860086 15.8456)
(0.00228392 -0.00763289 15.9892)
(-0.0083904 -0.00844949 15.6085)
(-0.0087054 -0.00941206 15.6414)
(-0.00901732 -0.0104159 15.6798)
(-0.00933408 -0.0114392 15.7212)
(-0.00965855 -0.0124527 15.7627)
(-0.00998582 -0.0134186 15.8014)
(-0.0103011 -0.0142912 15.8344)
(-0.0105781 -0.0150186 15.8589)
(-0.0107793 -0.0155449 15.8725)
(-0.0108566 -0.0158149 15.8732)
(-0.0104235 -0.0154035 15.8304)
(-0.00981275 -0.0146726 15.7865)
(-0.00889136 -0.0135969 15.7282)
(-0.00608436 -0.0105799 15.5752)
(-0.00423994 -0.00878342 15.4851)
(-0.00216856 -0.00692472 15.3898)
(5.394e-05 -0.00511608 15.293)
(0.0023366 -0.00347209 15.1986)
(0.00458139 -0.00209978 15.1108)
(0.00669089 -0.00108908 15.0338)
(0.00857591 -0.000504416 14.9713)
(0.0101619 -0.000377909 14.9269)
(0.0113935 -0.000704729 14.903)
(0.0126816 -0.00250559 14.9225)
(0.0127376 -0.00378532 14.9659)
(0.0018781 -0.00592967 15.936)
(0.00109924 -0.00544111 15.9861)
(-0.0015027 -0.00322346 15.9861)
(-0.00190772 -0.00281903 15.9467)
(-0.00230908 -0.00244836 15.8979)
(-0.00271845 -0.00213456 15.8413)
(-0.00314645 -0.00190267 15.7787)
(-0.00408744 -0.00176702 15.6445)
(-0.00568665 -0.00249356 15.4598)
(-0.00622492 -0.00296334 15.4138)
(-0.00867908 -0.00752138 15.4185)
(0.0135996 -0.00257406 14.9141)
(0.0124024 -0.0043233 15.0308)
(0.011003 -0.00571663 15.1592)
(0.00949305 -0.00667976 15.2936)
(0.00795941 -0.0072073 15.428)
(0.00510195 -0.00720461 15.6753)
(-0.00867908 -0.00752138 15.4185)
(-0.00898054 -0.0085176 15.4637)
(-0.00928919 -0.00955849 15.5166)
(-0.009621 -0.0106222 15.5737)
(-0.0103821 -0.0126773 15.6868)
(-0.0115391 -0.0147658 15.7998)
(-0.0117586 -0.0149274 15.8096)
(-0.008566 -0.0095182 15.5829)
(-0.00675871 -0.00728282 15.4872)
(-0.00458179 -0.00484543 15.38)
(-0.00210805 -0.00234087 15.2652)
(0.000561323 8.22337e-05 15.1472)
(0.00599386 0.00409342 14.9223)
(0.0125291 0.00631861 14.6919)
(0.0138941 0.0058369 14.6614)
(0.00043792 -0.00496834 16.0177)
(-0.00013049 -0.00451438 16.0319)
(-0.000629926 -0.00407493 16.0303)
(-0.00108153 -0.00364477 16.0145)
(-0.00360139 -0.00177493 15.7123)
(-0.00460309 -0.00188605 15.5779)
(-0.00514056 -0.00213077 15.5154)
(-0.00673873 -0.00352854 15.3796)
(-0.00721436 -0.00417926 15.3589)
(-0.00764366 -0.00490826 15.3527)
(-0.00802558 -0.00571078 15.3612)
(0.0145059 -0.000606034 14.8145)
(0.00647681 -0.00735246 15.5568)
(0.00387038 -0.00686328 15.7796)
(0.0018781 -0.00592967 15.936)
(-0.00998555 -0.0116764 15.6317)
(-0.0107962 -0.0135698 15.7354)
(-0.0111975 -0.0142896 15.7742)
(-0.0117823 -0.0147099 15.8016)
(-0.0115338 -0.0140654 15.7747)
(-0.0109443 -0.0129722 15.7286)
(-0.00996332 -0.0114413 15.6642)
(0.0033052 0.00227369 15.0311)
(0.00849995 0.00542415 14.8262)
(0.0107093 0.00618095 14.7479)
(0.014768 0.00478413 14.6585)
(0.0151439 0.00325802 14.6838)
(0.0150419 0.001402 14.7366)
(-0.00466562 -0.000831388 15.3925)
(0.00334863 -0.00515674 15.704)
(-0.0110274 -0.01286 15.6201)
(0.0102607 0.0120064 14.6092)
(0.00126245 -0.00429956 15.8679)
(0.000508085 -0.00385449 15.9165)
(-9.87988e-05 -0.00343202 15.9443)
(-0.000594971 -0.0030299 15.9529)
(-0.00101388 -0.00263726 15.9444)
(-0.00138331 -0.00224466 15.9209)
(-0.00172535 -0.00185158 15.8841)
(-0.00205823 -0.00146971 15.8355)
(-0.00239843 -0.00112197 15.7764)
(-0.00276178 -0.000838059 15.7086)
(-0.00316279 -0.000648118 15.6338)
(-0.00361233 -0.000576417 15.5543)
(-0.00411476 -0.000636839 15.4728)
(-0.00525109 -0.00115177 15.3169)
(-0.00584977 -0.00158325 15.2497)
(-0.00643635 -0.00210926 15.1941)
(-0.00698622 -0.00271536 15.1531)
(-0.00748007 -0.00339159 15.1287)
(-0.00790729 -0.00413304 15.1224)
(-0.00826783 -0.00493886 15.1344)
(-0.00884039 -0.00674691 15.2088)
(0.0163112 0.00422763 14.5953)
(0.0150925 0.00157393 14.7135)
(0.0135468 -0.000841892 14.8511)
(0.0117841 -0.00282281 15.0014)
(0.00991894 -0.00425267 15.1573)
(0.00806111 -0.00511161 15.3117)
(0.00630506 -0.00546565 15.4578)
(0.00472076 -0.00543528 15.59)
(0.00126245 -0.00429956 15.8679)
(-0.00884039 -0.00674691 15.2088)
(-0.00909815 -0.00774561 15.2668)
(-0.00937388 -0.00879499 15.3345)
(-0.0096934 -0.00987345 15.4079)
(-0.0100749 -0.0109461 15.4829)
(-0.0105237 -0.0119632 15.555)
(-0.0115528 -0.0135589 15.6738)
(-0.0120438 -0.0139737 15.7124)
(-0.0124233 -0.0140162 15.7326)
(-0.0125971 -0.013606 15.7317)
(-0.0124641 -0.012682 15.7082)
(-0.0119302 -0.0112152 15.6614)
(-0.0109228 -0.00921746 15.5919)
(-0.00940312 -0.00674495 15.5014)
(-0.00737393 -0.00389784 15.3923)
(-0.00488321 -0.000815187 15.2682)
(-0.00202251 0.00233445 15.1336)
(0.00107922 0.00536625 14.9939)
(0.00426858 0.00809607 14.8554)
(0.00738189 0.0103557 14.7248)
(0.0127656 0.0129486 14.5149)
(0.0147868 0.0131271 14.4474)
(0.0162501 0.0125349 14.411)
(0.0171193 0.0112179 14.4079)
(0.0173938 0.00927843 14.4387)
(0.017105 0.00687735 14.5022)
(-0.000730383 -0.00203838 15.8509)
(-0.00219167 -0.000337969 15.705)
(-0.00410292 0.000192507 15.2854)
(-0.00718615 -0.00211775 14.9105)
(0.0143779 0.00271992 14.6705)
(0.00408263 -0.00371223 15.4969)
(-0.0103803 -0.0112476 15.4076)
(-0.013155 -0.0125238 15.648)
(-0.00790806 -0.000648899 15.2881)
(0.00866883 0.016192 14.5169)
(0.0191919 0.0173526 14.1505)
(0.000483833 -0.00277363 15.7837)
(-0.000210753 -0.00239191 15.8287)
(-0.00112517 -0.00170443 15.853)
(-0.00143806 -0.00137296 15.8375)
(-0.0017031 -0.00103165 15.8066)
(-0.00194688 -0.000681208 15.7619)
(-0.0024583 -3.12475e-05 15.6368)
(-0.00276725 0.00020329 15.5587)
(-0.00313717 0.000332106 15.4724)
(-0.00358124 0.000331543 15.3803)
(-0.00469298 -7.92446e-05 15.1916)
(-0.00532941 -0.000466851 15.103)
(-0.00598049 -0.00094849 15.0239)
(-0.0066105 -0.00150367 14.9585)
(-0.00768254 -0.00278385 14.8825)
(-0.00808729 -0.00350236 14.8762)
(-0.00840235 -0.00427858 14.8917)
(-0.00883911 -0.00603067 14.9835)
(0.0177969 0.0090727 14.3739)
(0.0162669 0.00578653 14.5117)
(0.0122586 0.000137853 14.8425)
(0.0100456 -0.00178805 15.0192)
(0.00787283 -0.0030109 15.192)
(0.00585673 -0.00360221 15.3534)
(0.00259646 -0.00351597 15.6179)
(0.000483833 -0.00277363 15.7837)
(-0.00883911 -0.00603067 14.9835)
(-0.00902455 -0.00701182 15.0544)
(-0.00923942 -0.00805397 15.1369)
(-0.00952074 -0.0091355 15.2266)
(-0.00989673 -0.0102187 15.3185)
(-0.0109626 -0.0121476 15.489)
(-0.0116088 -0.0128278 15.5579)
(-0.0122548 -0.013186 15.6098)
(-0.0128085 -0.0131169 15.6409)
(-0.0131672 -0.0113332 15.6288)
(-0.0127236 -0.00950928 15.5824)
(-0.0117272 -0.00706595 15.5089)
(-0.0101228 -0.00407173 15.4099)
(-0.00513879 0.00303333 15.1473)
(-0.00192631 0.00677201 14.9927)
(0.00157214 0.0103489 14.8309)
(0.00516969 0.0135514 14.6695)
(0.0118808 0.0181216 14.3816)
(0.0146424 0.0192367 14.2715)
(0.0168278 0.0194798 14.1934)
(0.0183559 0.0188395 14.1522)
(0.0193433 0.0151119 14.1885)
(0.0188542 0.0122759 14.2643)
(-0.00101503 -0.00106832 15.7222)
(-0.00169339 -0.000540587 15.7326)
(-0.00188142 -0.000279151 15.7101)
(-0.00202581 1.89802e-06 15.6723)
(-0.00215733 0.000299488 15.6208)
(-0.00307033 0.00107268 15.2964)
(-0.00467867 0.000442541 14.9778)
(-0.00536338 1.06597e-05 14.8763)
(-0.00672233 -0.0010356 14.7105)
(-0.0077867 -0.0022341 14.624)
(-0.00814599 -0.00289475 14.6177)
(-0.00839066 -0.00361272 14.6369)
(-0.0086395 -0.00527272 14.7461)
(0.0189254 0.0136332 14.1517)
(0.0171037 0.0098453 14.3098)
(0.00744 -0.000945292 15.069)
(0.00166956 -0.00196507 15.5204)
(-0.000409098 -0.00137158 15.6828)
(-0.00907515 -0.00834628 15.0323)
(-0.0105738 -0.0114114 15.3433)
(-0.0113351 -0.0120895 15.4269)
(-0.012877 -0.0122551 15.5339)
(-0.0136009 -0.0100862 15.5349)
(-0.013283 -0.00794738 15.4896)
(-0.012339 -0.00510971 15.413)
(-0.0106954 -0.00165601 15.3063)
(0.0020024 0.0146941 14.6566)
(0.0132744 0.0233043 14.1426)
(0.0162472 0.0245521 14.0175)
(0.0201229 0.0242463 13.8856)
(0.0209238 0.0203223 13.9343)
(0.0202348 0.0172255 14.0242)
(-0.000409098 -0.00137158 15.6828)
(-0.00142192 -0.000796258 15.7377)
(-0.00230232 0.0005921 15.5566)
(-0.00248627 0.000844373 15.4804)
(-0.00273466 0.00101608 15.3932)
(-0.00350821 0.00099412 15.1925)
(-0.00404958 0.000778938 15.0849)
(-0.00606023 -0.000489237 14.7855)
(-0.00730775 -0.00161727 14.6556)
(0.014896 0.00621243 14.4901)
(0.0124452 0.00306881 14.6833)
(0.00990724 0.00065324 14.8794)
(0.00518419 -0.00179211 15.2433)
(0.00324312 -0.0020612 15.3954)
(-0.0086395 -0.00527272 14.7461)
(-0.00872678 -0.00622808 14.8297)
(-0.00885571 -0.00726015 14.9268)
(-0.00942436 -0.00944544 15.1406)
(-0.00992508 -0.0104953 15.2461)
(-0.0121382 -0.0124114 15.4919)
(-0.0134155 -0.0115085 15.5492)
(-0.00834385 0.00226722 15.1722)
(-0.00534739 0.00645951 15.015)
(-0.00183689 0.0106844 14.8406)
(0.00595135 0.0182559 14.4721)
(0.00978083 0.0211743 14.2974)
(0.0185591 0.0248696 13.93)
(0.0209056 0.0227072 13.8871)
(-0.00186456 0.000110658 15.5971)
(-0.00266774 0.00163865 15.2137)
(-0.00296597 0.0016212 15.1075)
(-0.00674891 -0.000599198 14.4528)
(0.00681611 0.00105035 14.9422)
(-0.00820586 -0.00635332 14.7068)
(-0.0083419 -0.0074556 14.8273)
(-0.0126011 -0.0114487 15.411)
(-0.00176946 0.0138545 14.6757)
(0.00233873 0.0181529 14.4697)
(0.021493 0.0283723 13.612)
(-0.00136769 -0.000103867 15.5648)
(-0.00214183 0.000294333 15.605)
(-0.00227615 0.000467093 15.5925)
(-0.00232774 0.000654701 15.5632)
(-0.00234146 0.000871208 15.5192)
(-0.00235194 0.00111035 15.4619)
(-0.00238953 0.00134537 15.3917)
(-0.00248457 0.00153576 15.3088)
(-0.00339518 0.00146978 14.9928)
(-0.00395323 0.00119279 14.8731)
(-0.0046163 0.00081613 14.7534)
(-0.00534089 0.00037346 14.6394)
(-0.00607111 -0.000104648 14.5372)
(-0.00732441 -0.00110636 14.3912)
(-0.00776389 -0.00163618 14.3562)
(-0.0080544 -0.00220815 14.3501)
(-0.00820487 -0.00284535 14.3731)
(-0.00821881 -0.00439363 14.4996)
(0.019679 0.0176338 13.9296)
(0.0176 0.0135383 14.1087)
(0.0151141 0.00948646 14.3104)
(0.0123728 0.00587371 14.5238)
(0.00954681 0.00301296 14.738)
(0.00434716 -5.81171e-05 15.1268)
(0.00226403 -0.000499898 15.2846)
(0.000628207 -0.000519636 15.4108)
(-0.00136769 -0.000103867 15.5648)
(-0.00821881 -0.00439363 14.4996)
(-0.00818511 -0.00532445 14.5956)
(-0.00864406 -0.00858624 14.9511)
(-0.00914397 -0.00967636 15.0719)
(-0.00984467 -0.0106318 15.1839)
(-0.0107123 -0.0113354 15.2812)
(-0.0116707 -0.0116537 15.3586)
(-0.0133475 -0.0105937 15.4344)
(-0.0137314 -0.00899317 15.4252)
(-0.0135745 -0.00660271 15.3815)
(-0.0127271 -0.00344582 15.3023)
(-0.0110967 0.000378292 15.1885)
(-0.00866741 0.00469717 15.0428)
(-0.00550865 0.00927855 14.8696)
(0.00656772 0.0219302 14.2625)
(0.0106606 0.0249957 14.066)
(0.0143772 0.0272223 13.8925)
(0.0175136 0.0285408 13.7533)
(0.0199169 0.0289245 13.6577)
(0.0222104 0.0268992 13.6187)
(0.0220947 0.0245445 13.677)
(0.0212171 0.0213975 13.7828)
(0.0151553 0.0297078 13.6322)
(0.0200608 0.0208519 13.708)
(-0.00264469 0.00159615 15.3487)
(-0.00450224 0.00111754 14.5202)
(-0.00783706 -0.00192129 14.103)
(-0.000465295 0.000811153 15.2886)
(-0.0087783 -0.00979741 15.0118)
(-0.0135758 -0.00552487 15.257)
(-0.0128703 -0.00213984 15.1757)
(-0.0113093 0.00194866 15.0555)
(-0.0088685 0.00654128 14.8988)
(-0.00562155 0.0113744 14.7104)
(-0.00173335 0.0161515 14.4975)
(0.00256192 0.0205826 14.2701)
(0.00699154 0.0244223 14.0408)
(0.0112759 0.0274965 13.8234)
(0.0184098 0.0310232 13.4802)
(0.0208736 0.0314484 13.378)
(0.0224448 0.0310011 13.3325)
(0.0230913 0.0296924 13.3463)
(0.0228467 0.02753 13.4176)
(0.0217974 0.0245466 13.5409)
(0.0177673 0.0166818 13.9086)
(-0.00234461 0.00102596 15.43)
(-0.0027217 0.00114595 15.454)
(-0.00286198 0.00123912 15.4536)
(-0.00285402 0.00132913 15.4337)
(-0.0027652 0.00144379 15.398)
(-0.00253049 0.00177616 15.2866)
(-0.0024569 0.00195209 15.2116)
(-0.00245925 0.0020795 15.1232)
(-0.00257353 0.00211502 15.0215)
(-0.00283047 0.00203001 14.9071)
(-0.00324635 0.00181963 14.7826)
(-0.00381456 0.00150343 14.6518)
(-0.00525399 0.000701715 14.3943)
(-0.00600157 0.000286523 14.2812)
(-0.00667644 -0.000115159 14.1878)
(-0.00722172 -0.000510148 14.1198)
(-0.00760071 -0.000921284 14.0818)
(-0.0078014 -0.00138053 14.076)
(-0.00757633 -0.00335074 14.2463)
(0.0150548 0.0124055 14.1313)
(0.0120769 0.00846159 14.364)
(0.00901189 0.0052363 14.5945)
(0.00605854 0.00294515 14.811)
(0.00340895 0.00158199 15.0034)
(0.00121027 0.00095988 15.164)
(-0.00234461 0.00102596 15.43)
(-0.00757633 -0.00335074 14.2463)
(-0.0074021 -0.00426377 14.3542)
(-0.007295 -0.00530154 14.4787)
(-0.0073277 -0.00643649 14.6133)
(-0.00756281 -0.00761905 14.7514)
(-0.00804267 -0.0087738 14.8864)
(-0.00973914 -0.0105606 15.1217)
(-0.0108459 -0.0109156 15.2102)
(-0.0119689 -0.0107094 15.2723)
(-0.012934 -0.00980207 15.3032)
(-0.0135383 -0.00808927 15.299)
(-0.00665156 -0.00778786 14.6906)
(-0.00740169 -0.00890853 14.828)
(-0.00843781 -0.00976633 14.9489)
(-0.00967985 -0.0102004 15.0474)
(-0.0109899 -0.0100439 15.118)
(-0.0121781 -0.0091451 15.1557)
(-0.013019 -0.00739211 15.1561)
(-0.0132804 -0.00473832 15.1158)
(-0.0127603 -0.00122333 15.0328)
(-0.0113257 0.0030171 14.9068)
(-0.00894193 0.00775688 14.7399)
(-0.00568472 0.0127028 14.5371)
(-0.00173121 0.0175337 14.3062)
(0.00266629 0.021948 14.0586)
(0.00721596 0.0257075 13.8083)
(0.011621 0.0286626 13.5711)
(0.0156065 0.0307544 13.3634)
(0.0189384 0.0319929 13.1999)
(0.0214374 0.0324234 13.0926)
(0.0229914 0.0320904 13.049)
(0.023565 0.0310109 13.0714)
(0.0231991 0.0291676 13.1571)
(0.0219958 0.0265345 13.2991)
(0.0200914 0.0231388 13.4872)
(0.014747 0.0148567 13.9526)
(0.014747 0.0148567 13.9526)
(0.0115949 0.0107522 14.2035)
(0.00835024 0.00727326 14.4484)
(0.00522412 0.00471138 14.675)
(0.0024324 0.00311382 14.8724)
(0.000146303 0.00231032 15.0332)
(-0.0015495 0.00202275 15.1536)
(-0.00329477 0.00201906 15.2789)
(-0.00329477 0.00201906 15.2789)
(-0.00355145 0.00204237 15.2937)
(-0.00355717 0.00204688 15.2847)
(-0.00341064 0.00205837 15.2576)
(-0.00318509 0.00210513 15.216)
(-0.00293307 0.00219807 15.1621)
(-0.00269547 0.00232291 15.0962)
(-0.00251043 0.00244332 15.0176)
(-0.00241842 0.00251226 14.9251)
(-0.00246075 0.00248776 14.8179)
(-0.00510142 0.00104992 14.1428)
(-0.00584963 0.000733099 14.0195)
(-0.00650389 0.000457334 13.9176)
(-0.00700123 0.000202921 13.8437)
(-0.00730264 -6.71499e-05 13.8028)
(-0.00739722 -0.00039794 13.7976)
(-0.00730246 -0.000833204 13.8284)
(-0.00673646 -0.00214408 13.9881)
(-0.00673646 -0.00214408 13.9881)
(-0.00640577 -0.00304736 14.1073)
(-0.00615376 -0.00410641 14.2442)
(-0.00606456 -0.00529018 14.3919)
(-0.00621263 -0.00654451 14.543)
(-0.00267182 0.00234756 14.6966)
(-0.00306775 0.00209711 14.5633)
(-0.00363696 0.00176746 14.4224)
(-0.00433723 0.0014039 14.2797)
(-0.0057673 -0.00797769 14.6333)
(-0.0096983 -0.0094548 14.9487)
(-0.0121926 -0.00690223 14.9968)
(0.015755 0.0304911 13.0884)
(0.023173 0.0317501 12.7631)
(0.0231925 0.029478 12.8963)
(-0.00256676 0.0031137 15.0059)
(-0.00432119 0.00280658 15.1174)
(-0.003931 0.00266753 15.0656)
(-0.00412641 0.00170659 14.0335)
(-0.00624287 0.0011193 13.6438)
(-0.00689251 0.000904613 13.5209)
(-0.0050261 -0.00673602 14.4855)
(-0.00685595 -0.0089608 14.7637)
(-0.00821396 -0.00951287 14.8708)
(-0.0111062 -0.00862407 14.9923)
(-0.0127011 -0.00424292 14.9582)
(-0.0124048 -0.000694709 14.8737)
(-0.0111497 0.00358845 14.7425)
(-0.00888921 0.0083552 14.5665)
(-0.00569771 0.0132857 14.3504)
(-0.00176029 0.018039 14.1029)
(0.00265798 0.0223086 13.8365)
(0.00725202 0.0258695 13.5667)
(0.0117131 0.028603 13.3113)
(0.0191302 0.0315886 12.9149)
(0.0216447 0.0319824 12.8037)
(0.0236734 0.0309251 12.7952)
(0.0218502 0.0273325 13.0577)
(0.0198051 0.0244283 13.2672)
(0.0172159 0.02082 13.5109)
(0.0142229 0.0167586 13.7739)
(0.0109635 0.0126807 14.0414)
(0.0076059 0.0090804 14.299)
(0.004365 0.00632423 14.5333)
(0.00147571 0.00452512 14.7333)
(-0.000867581 0.00354621 14.8918)
(-0.00417596 0.00287932 15.1124)
(-0.00417596 0.00287932 15.1124)
(-0.00420399 0.0027272 15.0998)
(-0.00357961 0.00265478 15.0187)
(-0.00320466 0.00269655 14.961)
(-0.00284944 0.0027739 14.8923)
(-0.00255587 0.00284628 14.8111)
(-0.00236965 0.00286518 14.7155)
(-0.00249794 0.00261112 14.4769)
(-0.00249794 0.00261112 14.4769)
(-0.00286632 0.00234027 14.3361)
(-0.0034262 0.00202117 14.1862)
(-0.00488886 0.00144145 13.8864)
(-0.00562313 0.00124797 13.7536)
(-0.00667973 0.00102194 13.5644)
(-0.00687116 0.000709541 13.5164)
(-0.00663676 0.000383156 13.551)
(-0.00623805 -0.000115929 13.6225)
(-0.00574601 -0.000812277 13.7262)
(-0.00524718 -0.00171173 13.856)
(-0.00483638 -0.00280068 14.0044)
(-0.00460871 -0.00404471 14.1639)
(-0.00465019 -0.00538542 14.3267)
(-0.00324309 -0.00564977 14.2718)
(-0.00395015 -0.00702756 14.4284)
(-0.00506481 -0.00815815 14.5669)
(-0.00651379 -0.00885922 14.6811)
(-0.00815235 -0.00894084 14.7652)
(-0.0097684 -0.00823079 14.8139)
(-0.0111005 -0.00660467 14.8219)
(-0.0118706 -0.0040165 14.7847)
(-0.0118281 -0.000523233 14.699)
(-0.0107981 0.0037045 14.5635)
(-0.00871983 0.00839268 14.3793)
(-0.00566269 0.0131992 14.1514)
(-0.00181494 0.0177686 13.889)