FoamFile
{
    version        2.0;
    format         ascii;
    class          vectorAverageField;
    object         values;
}
// * * * * * * * * * * * * * * * * * * * * * * * * * * * * * * //
(0.0 0.0 49.6)
5761
(
(-0.653576 0.384628 60.6784)
(-0.656243 0.404306 60.6901)
(-0.658261 0.419005 60.6959)
(-0.659713 0.429246 60.6961)
(-0.660546 0.435546 60.691)
(-0.660628 0.438382 60.6815)
(-0.659763 0.438137 60.6682)
(-0.657725 0.435063 60.6524)
(-0.654314 0.429247 60.6349)
(-0.649257 0.420739 60.617)
(-0.642413 0.409445 60.5995)
(-0.633754 0.395236 60.5829)
(-0.623366 0.378067 60.5675)
(-0.611411 0.358049 60.5533)
(-0.598061 0.335505 60.5395)
(-0.58346 0.310909 60.5254)
(-0.567742 0.284762 60.5099)
(-0.551087 0.257542 60.4918)
(-0.533763 0.229646 60.4703)
(-0.516149 0.201454 60.4447)
(-0.498691 0.173297 60.4149)
(-0.481819 0.145517 60.3811)
(-0.465875 0.118444 60.3437)
(-0.451079 0.0923487 60.3037)
(-0.437547 0.0674492 60.2618)
(-0.425281 0.0438291 60.2192)
(-0.414241 0.0215491 60.1766)
(-0.404316 0.000522324 60.1352)
(-0.395401 -0.0194609 60.0954)
(-0.387367 -0.0387022 60.0579)
(-0.380102 -0.0575138 60.0226)
(-0.37365 -0.0761865 59.9895)
(-0.368236 -0.0949374 59.9581)
(-0.364236 -0.113892 59.9278)
(-0.362189 -0.133081 59.8982)
(-0.362631 -0.152204 59.8688)
(-0.366139 -0.170903 59.8399)
(-0.373055 -0.188453 59.8125)
(-0.383132 -0.203581 59.7885)
(-0.395074 -0.214567 59.7704)
(-0.406353 -0.219791 59.7615)
(-0.413713 -0.218599 59.7646)
(-0.414588 -0.211915 59.7815)
(-0.408849 -0.201819 59.8128)
(-0.399505 -0.190493 59.8575)
(-0.39181 -0.178815 59.9138)
(-0.39113 -0.165583 59.9788)
(-0.400705 -0.148184 60.0486)
(-0.420742 -0.124071 60.1197)
(-0.448889 -0.0919108 60.1893)
(-0.481551 -0.0518911 60.2561)
(-0.515124 -0.00538065 60.3194)
(-0.54666 0.0455749 60.3789)
(-0.574305 0.0986568 60.4344)
(-0.597112 0.151614 60.4855)
(-0.615015 0.202458 60.5317)
(-0.628448 0.249598 60.5726)
(-0.638182 0.291882 60.6079)
(-0.645112 0.328614 60.6373)
(-0.653576 0.384628 60.6784)
(-1.03907 0.777393 61.5082)
(-1.0505 0.875053 61.5124)
(-1.05374 0.954075 61.4806)
(-1.04948 1.01441 61.4118)
(-1.03884 1.05682 61.3084)
(-1.02331 1.0826 61.177)
(-1.00495 1.09304 61.028)
(-0.985861 1.08984 60.8751)
(-0.966785 1.07353 60.733)
(-0.948032 1.0438 60.6152)
(-0.929731 1.00017 60.533)
(-0.910974 0.94161 60.4932)
(-0.890578 0.867777 60.4985)
(-0.867163 0.78005 60.5457)
(-0.839492 0.681544 60.6257)
(-0.807238 0.576307 60.7244)
(-0.771033 0.468105 60.8248)
(-0.731974 0.360649 60.9094)
(-0.6913 0.257719 60.9624)
(-0.649734 0.16257 60.9718)
(-0.607613 0.0772813 60.9322)
(-0.56474 0.0023077 60.845)
(-0.521028 -0.0631371 60.717)
(-0.476545 -0.120585 60.5583)
(-0.431531 -0.171988 60.3806)
(-0.385988 -0.219652 60.1966)
(-0.340222 -0.266386 60.0187)
(-0.295021 -0.314551 59.8581)
(-0.252085 -0.366708 59.7242)
(-0.213325 -0.42459 59.6232)
(-0.17962 -0.488716 59.5575)
(-0.151863 -0.558333 59.5255)
(-0.130728 -0.631334 59.5227)
(-0.116967 -0.70444 59.5439)
(-0.110026 -0.774509 59.5842)
(-0.110736 -0.83885 59.6383)
(-0.121012 -0.893941 59.701)
(-0.13987 -0.934729 59.7684)
(-0.164116 -0.955777 59.8392)
(-0.188098 -0.957085 59.9125)
(-0.20758 -0.943325 59.9831)
(-0.222483 -0.920106 60.0423)
(-0.235309 -0.893305 60.0837)
(-0.24902 -0.866449 60.109)
(-0.264246 -0.840155 60.1295)
(-0.279575 -0.814448 60.161)
(-0.296172 -0.789252 60.2145)
(-0.320771 -0.761684 60.2902)
(-0.361736 -0.724144 60.3812)
(-0.421794 -0.667543 60.4796)
(-0.495962 -0.586877 60.581)
(-0.576055 -0.482749 60.6843)
(-0.655181 -0.358893 60.7893)
(-0.7293 -0.220092 60.8961)
(-0.796694 -0.0712856 61.0046)
(-0.856762 0.0827797 61.1137)
(-0.909283 0.237558 61.2206)
(-0.954045 0.388575 61.3202)
(-0.990779 0.531439 61.406)
(-1.03907 0.777393 61.5082)
(-1.19169 0.994813 63.5301)
(-1.21323 1.14033 63.5541)
(-1.2209 1.24919 63.4552)
(-1.21552 1.32579 63.2271)
(-1.19822 1.37682 62.8789)
(-1.17317 1.41042 62.434)
(-1.14375 1.43324 61.9308)
(-1.11242 1.44475 61.4151)
(-1.08427 1.44064 60.9365)
(-1.06554 1.4128 60.5398)
(-1.06033 1.35171 60.259)
(-1.06829 1.25118 60.1121)
(-1.08146 1.11253 60.1012)
(-1.08576 0.945125 60.2134)
(-1.06815 0.762127 60.4227)
(-1.02496 0.574111 60.6926)
(-0.959829 0.385747 60.9871)
(-0.878333 0.199958 61.2749)
(-0.787894 0.0207301 61.5219)
(-0.695449 -0.144834 61.688)
(-0.610395 -0.287972 61.7341)
(-0.534529 -0.401675 61.6458)
(-0.46643 -0.484722 61.4367)
(-0.401847 -0.539612 61.1382)
(-0.336767 -0.572468 60.7894)
(-0.270313 -0.59197 60.4313)
(-0.200843 -0.6056 60.1024)
(-0.129233 -0.62294 59.8344)
(-0.0604798 -0.654447 59.6503)
(0.000811756 -0.706284 59.5618)
(0.0524395 -0.779657 59.5673)
(0.0923479 -0.871823 59.6517)
(0.11684 -0.975483 59.7913)
(0.123241 -1.07885 59.961)
(0.110741 -1.16481 60.144)
(0.0828379 -1.21091 60.3353)
(0.0464775 -1.19933 60.5356)
(0.00843766 -1.13132 60.7403)
(-0.0248723 -1.02413 60.9272)
(-0.0516824 -0.900849 61.0655)
(-0.074033 -0.783335 61.1324)
(-0.0919428 -0.686815 61.1232)
(-0.102288 -0.622878 61.0465)
(-0.101979 -0.599046 60.9223)
(-0.0978476 -0.619588 60.7773)
(-0.108016 -0.678637 60.6435)
(-0.149104 -0.753815 60.5521)
(-0.216601 -0.81613 60.5286)
(-0.283688 -0.852218 60.5878)
(-0.343555 -0.861372 60.7295)
(-0.407468 -0.840413 60.9386)
(-0.485832 -0.781512 61.1964)
(-0.578496 -0.678902 61.4865)
(-0.678392 -0.531129 61.7934)
(-0.778433 -0.341428 62.1018)
(-0.873857 -0.119425 62.4008)
(-0.961344 0.120957 62.6863)
(-1.03863 0.365064 62.9559)
(-1.10389 0.599556 63.2014)
(-1.19169 0.994813 63.5301)
(-1.42718 1.09218 65.5094)
(-1.46904 1.29969 65.6442)
(-1.48822 1.44545 65.5454)
(-1.48508 1.54565 65.2122)
(-1.46076 1.62495 64.6722)
(-1.41656 1.69925 63.9566)
(-1.35981 1.77548 63.1089)
(-1.30404 1.84921 62.1957)
(-1.26421 1.90381 61.3057)
(-1.25635 1.91659 60.5344)
(-1.28989 1.86349 59.9633)
(-1.36007 1.73083 59.6406)
(-1.43704 1.52661 59.5792)
(-1.47514 1.27847 59.7619)
(-1.44538 1.01668 60.1358)
(-1.35694 0.758394 60.6084)
(-1.23353 0.500844 61.1029)
(-1.08757 0.240418 61.5778)
(-0.930933 -0.0220702 61.9879)
(-0.769815 -0.276901 62.2764)
(-0.631037 -0.509443 62.3689)
(-0.522723 -0.701859 62.2357)
(-0.447126 -0.842813 61.898)
(-0.393504 -0.932102 61.4237)
(-0.346952 -0.976307 60.8914)
(-0.296486 -0.985977 60.3697)
(-0.242775 -0.973283 59.9012)
(-0.192051 -0.953605 59.5073)
(-0.145825 -0.945123 59.2231)
(-0.100938 -0.965748 59.1028)
(-0.0568391 -1.02032 59.1735)
(-0.0164959 -1.09875 59.4177)
(0.0125614 -1.17952 59.7817)
(0.0216547 -1.22835 60.2053)
(0.00812606 -1.19928 60.6461)
(-0.0181998 -1.05773 61.0849)
(-0.0428239 -0.80845 61.5017)
(-0.0594866 -0.494918 61.8586)
(-0.0714323 -0.162731 62.124)
(-0.0929061 0.149393 62.2819)
(-0.126704 0.418065 62.3297)
(-0.176897 0.632913 62.2717)
(-0.240506 0.782621 62.1136)
(-0.306638 0.855543 61.8563)
(-0.360521 0.838781 61.5047)
(-0.374192 0.718064 61.0861)
(-0.312648 0.478538 60.6728)
(-0.190433 0.114654 60.3765)
(-0.101607 -0.292534 60.2711)
(-0.109237 -0.621905 60.3558)
(-0.191233 -0.826773 60.6042)
(-0.312561 -0.917844 60.9866)
(-0.451522 -0.920087 61.4736)
(-0.594251 -0.844568 62.0332)
(-0.73737 -0.689673 62.6225)
(-0.882479 -0.454498 63.2028)
(-1.02409 -0.155802 63.7552)
(-1.15465 0.177356 64.2749)
(-1.26809 0.513468 64.7601)
(-1.42718 1.09218 65.5094)
(-1.74636 1.16114 66.8134)
(-1.79835 1.43767 67.1407)
(-1.80988 1.62844 67.207)
(-1.78269 1.75735 66.9878)
(-1.71896 1.86641 66.4802)
(-1.62347 1.99033 65.6742)
(-1.50919 2.13889 64.5807)
(-1.40269 2.30135 63.2849)
(-1.34184 2.44889 61.9426)
(-1.36265 2.53777 60.741)
(-1.48236 2.52193 59.8533)
(-1.67632 2.38164 59.3818)
(-1.85372 2.14251 59.3611)
(-1.9081 1.86874 59.7617)
(-1.79786 1.6045 60.4402)
(-1.59196 1.3405 61.1829)
(-1.36186 1.04681 61.8922)
(-1.11882 0.718174 62.5504)
(-0.876612 0.358273 63.0824)
(-0.630351 -0.0111824 63.4095)
(-0.426883 -0.365335 63.4448)
(-0.276159 -0.674175 63.1899)
(-0.199021 -0.912013 62.678)
(-0.176343 -1.07461 62.0293)
(-0.180265 -1.16499 61.3742)
(-0.189191 -1.19441 60.7849)
(-0.201967 -1.17117 60.2505)
(-0.222507 -1.11604 59.7293)
(-0.247412 -1.06973 59.2469)
(-0.265123 -1.07688 58.9422)
(-0.26604 -1.14004 58.9413)
(-0.249144 -1.22101 59.2477)
(-0.221914 -1.26091 59.7905)
(-0.194652 -1.19426 60.4759)
(-0.167842 -0.969867 61.2162)
(-0.132781 -0.590319 61.9394)
(-0.0884217 -0.111143 62.5483)
(-0.0495248 0.384552 62.9469)
(-0.0170515 0.855336 63.174)
(-0.0073883 1.28043 63.2927)
(-0.0151453 1.65097 63.3246)
(-0.036901 1.96256 63.2698)
(-0.0836207 2.20411 63.1377)
(-0.155024 2.37879 62.9004)
(-0.249014 2.48454 62.5214)
(-0.356888 2.50625 61.9854)
(-0.45413 2.41604 61.3135)
(-0.471639 2.1327 60.591)
(-0.33253 1.57086 60.0351)
(-0.104029 0.812032 59.8765)
(0.0313199 0.0708022 60.1441)
(-0.0264141 -0.485525 60.6873)
(-0.219258 -0.820069 61.3663)
(-0.440034 -0.966412 62.1239)
(-0.654018 -0.940612 62.9172)
(-0.876513 -0.750621 63.6916)
(-1.10503 -0.431951 64.4115)
(-1.3176 -0.0339814 65.0683)
(-1.50262 0.393223 65.6915)
(-1.74636 1.16114 66.8134)
(-2.00212 1.24286 67.6473)
(-2.05909 1.55898 68.2386)
(-2.06442 1.76743 68.6117)
(-2.02204 1.89457 68.6971)
(-1.91917 1.99832 68.4221)
(-1.75294 2.14551 67.6994)
(-1.5545 2.35431 66.4597)
(-1.36955 2.60834 64.7779)
(-1.26739 2.86676 62.871)
(-1.32433 3.06649 61.0521)
(-1.57428 3.13697 59.6739)
(-1.95445 3.06246 58.9895)
(-2.26126 2.90079 59.1316)
(-2.29498 2.74683 59.97)
(-2.04462 2.61618 61.0425)
(-1.70626 2.43978 61.9841)
(-1.39043 2.14835 62.8284)
(-1.06527 1.75326 63.6609)
(-0.758301 1.2708 64.3005)
(-0.430541 0.739305 64.6372)
(-0.165661 0.200805 64.5775)
(0.0355762 -0.278217 64.223)
(0.115488 -0.665739 63.6178)
(0.107989 -0.962648 62.9436)
(0.0449976 -1.16535 62.3499)
(-0.0427044 -1.27281 61.853)
(-0.144757 -1.2772 61.3544)
(-0.254108 -1.20537 60.7466)
(-0.3567 -1.12273 60.0471)
(-0.438098 -1.11449 59.4637)
(-0.492734 -1.19289 59.2514)
(-0.51303 -1.28317 59.4844)
(-0.491923 -1.27765 60.0839)
(-0.428092 -1.09397 60.9296)
(-0.325869 -0.704883 61.8951)
(-0.195162 -0.156868 62.7619)
(-0.0615496 0.443355 63.2501)
(0.0318542 0.982778 63.3912)
(0.115517 1.46656 63.464)
(0.170985 1.8819 63.5829)
(0.197482 2.19404 63.7435)
(0.217502 2.39174 63.9074)
(0.195315 2.49274 64.0521)
(0.124499 2.56369 64.0365)
(0.0101207 2.66515 63.7539)
(-0.117916 2.78509 63.1593)
(-0.265635 2.89002 62.2939)
(-0.409895 2.92011 61.2703)
(-0.433666 2.70911 60.3003)
(-0.263293 2.11565 59.7522)
(-0.0606519 1.25411 59.8609)
(-0.0314122 0.380137 60.5)
(-0.183121 -0.329784 61.4007)
(-0.393895 -0.80894 62.3588)
(-0.615631 -1.00494 63.2413)
(-0.871326 -0.910157 64.0076)
(-1.15595 -0.600152 64.7255)
(-1.43593 -0.163245 65.4471)
(-1.69055 0.340672 66.1852)
(-2.00212 1.24286 67.6473)
(-2.0569 1.37295 68.3398)
(-2.14234 1.70943 69.294)
(-2.18462 1.90449 70.011)
(-2.17186 1.98929 70.381)
(-2.06207 2.04024 70.3322)
(-1.84289 2.16941 69.7773)
(-1.54988 2.41556 68.5543)
(-1.24756 2.74506 66.6259)
(-1.05025 3.12347 64.1733)
(-1.10364 3.47504 61.6261)
(-1.46944 3.70436 59.6192)
(-2.03811 3.8051 58.6927)
(-2.44915 3.85854 59.1402)
(-2.40253 3.94813 60.4844)
(-1.99985 4.00516 61.744)
(-1.60095 3.91473 62.5859)
(-1.27354 3.59084 63.38)
(-0.905225 3.1101 64.3096)
(-0.582271 2.48519 64.9739)
(-0.180621 1.7965 65.37)
(0.153208 1.0826 65.3243)
(0.43086 0.442706 65.0135)
(0.519553 -0.106415 64.4421)
(0.500042 -0.565761 63.9884)
(0.393797 -0.926189 63.7349)
(0.233732 -1.17522 63.4861)
(0.0399583 -1.27407 63.0596)
(-0.154301 -1.25019 62.3488)
(-0.327017 -1.17079 61.4138)
(-0.462157 -1.1548 60.5491)
(-0.566196 -1.23699 60.0927)
(-0.635223 -1.33412 60.1723)
(-0.638751 -1.30165 60.7276)
(-0.553958 -1.04759 61.6371)
(-0.384234 -0.546735 62.6512)
(-0.163773 0.0798099 63.2652)
(0.045083 0.671564 63.3284)
(0.18461 1.15796 63.1982)
(0.314145 1.53559 63.2815)
(0.371334 1.68408 63.7128)
(0.362332 1.55294 64.4159)
(0.350259 1.3315 65.1539)
(0.343079 1.23473 65.7682)
(0.312974 1.31 65.9806)
(0.241762 1.48751 65.6966)
(0.149825 1.7261 64.9107)
(-0.0164347 2.01389 63.7413)
(-0.241981 2.28642 62.3723)
(-0.406653 2.43929 61.046)
(-0.388476 2.25705 60.1334)
(-0.273197 1.65077 59.9609)
(-0.240481 0.844375 60.5079)
(-0.306785 0.0636417 61.4854)
(-0.402071 -0.566179 62.5662)
(-0.524288 -0.910787 63.475)
(-0.733503 -0.887201 64.1224)
(-1.03693 -0.578243 64.737)
(-1.3835 -0.110516 65.4962)
(-1.70331 0.426061 66.3686)
(-2.0569 1.37295 68.3398)
(-1.98619 1.59657 68.8861)
(-2.14307 1.92614 70.207)
(-2.26574 2.06787 71.1483)
(-2.32 2.07227 71.6108)
(-2.24707 2.03922 71.5815)
(-2.01597 2.12368 71.1094)
(-1.64983 2.38339 70.0571)
(-1.21286 2.76678 68.1819)
(-0.855715 3.26708 65.4469)
(-0.824841 3.8091 62.2968)
(-1.23896 4.26669 59.7004)
(-1.95399 4.6286 58.5942)
(-2.42642 4.93279 59.4135)
(-2.30178 5.20803 61.0588)
(-1.83034 5.36774 62.094)
(-1.49677 5.2864 62.5016)
(-1.21727 4.86126 63.1423)
(-0.813914 4.28613 64.0481)
(-0.509777 3.50411 64.5923)
(0.0239066 2.70027 65.214)
(0.459732 1.86803 65.4299)
(0.835382 1.17947 65.3441)
(0.9229 0.557821 64.874)
(0.918396 0.00673469 64.7789)
(0.780963 -0.487138 65.0194)
(0.564784 -0.902142 65.1709)
(0.303232 -1.1545 64.8816)
(0.0553737 -1.24978 64.0697)
(-0.152723 -1.22919 62.9148)
(-0.306217 -1.23558 61.8252)
(-0.424531 -1.30576 61.1851)
(-0.517353 -1.387 61.1252)
(-0.551781 -1.31554 61.606)
(-0.48764 -1.00499 62.4686)
(-0.300675 -0.438713 63.1893)
(-0.049198 0.154145 63.2659)
(0.186944 0.688648 62.9344)
(0.314328 1.06081 62.7153)
(0.381152 1.09956 63.0973)
(0.303648 0.773042 64.1927)
(0.227829 0.289137 65.5559)
(0.337189 -0.0254642 66.6215)
(0.540841 0.0565813 67.2209)
(0.603766 0.366101 67.3903)
(0.548821 0.621568 67.0828)
(0.479103 0.890354 66.2363)
(0.280365 1.18381 65.002)
(-0.0156518 1.4675 63.4414)
(-0.311676 1.72854 61.7974)
(-0.49141 1.81042 60.5302)
(-0.532422 1.50358 60.0484)
(-0.510479 0.898014 60.4185)
(-0.453143 0.218673 61.3846)
(-0.374963 -0.380998 62.5706)
(-0.325329 -0.741771 63.5833)
(-0.45227 -0.705862 64.162)
(-0.784191 -0.338699 64.55)
(-1.20394 0.160987 65.1508)
(-1.5619 0.666455 66.1036)
(-1.98619 1.59657 68.8861)
(-1.87039 1.89538 69.1735)
(-2.13668 2.18691 70.7196)
(-2.35318 2.23267 71.7559)
(-2.46856 2.11665 72.1236)
(-2.448 1.9961 71.8706)
(-2.25035 2.06451 71.2548)
(-1.88026 2.34677 70.3208)
(-1.3454 2.76432 68.7943)
(-0.782832 3.37736 66.2803)
(-0.568189 4.14466 62.8836)
(-0.943956 4.87848 59.8908)
(-1.75546 5.49825 58.7501)
(-2.26274 5.94119 59.9672)
(-2.10021 6.23754 61.6968)
(-1.63608 6.38512 62.2162)
(-1.43555 6.26414 62.1034)
(-1.23551 5.75098 62.6607)
(-0.80376 5.13649 63.312)
(-0.530992 4.2034 63.5542)
(0.217509 3.32254 64.4179)
(0.773792 2.3742 65.0596)
(1.25108 1.69885 65.4153)
(1.31514 1.08198 65.1092)
(1.32277 0.531719 65.3785)
(1.12981 -0.0152511 66.0019)
(0.862478 -0.553042 66.5214)
(0.563834 -0.991639 66.4079)
(0.300356 -1.25215 65.5473)
(0.0762289 -1.3303 64.254)
(-0.0756925 -1.37779 63.0232)
(-0.182868 -1.40415 62.2886)
(-0.273028 -1.41785 62.1743)
(-0.331419 -1.23984 62.6211)
(-0.332801 -0.851542 63.2594)
(-0.19096 -0.300074 63.3772)
(0.0492756 0.206626 62.9114)
(0.265863 0.694394 62.2949)
(0.309323 0.850838 62.1944)
(0.245178 0.515148 63.0856)
(0.0726345 -0.0742587 64.7371)
(0.010361 -0.68601 66.3479)
(0.337197 -0.880546 67.0726)
(0.794431 -0.373466 66.8747)
(0.812156 0.213292 67.1716)
(0.642634 0.505509 67.0835)
(0.555833 0.719006 66.4276)
(0.348002 0.880123 65.5079)
(0.0607347 1.01189 64.0826)
(-0.284356 1.18735 62.2327)
(-0.595833 1.31006 60.6361)
(-0.769796 1.18635 59.8558)
(-0.7461 0.768648 60.0746)
(-0.558328 0.244571 61.1203)
(-0.297721 -0.261897 62.5551)
(-0.0909461 -0.582995 63.7838)
(-0.173512 -0.46722 64.2763)
(-0.519013 -0.000621685 64.2716)
(-0.938259 0.538539 64.5619)
(-1.30033 1.01642 65.6331)
(-1.87039 1.89538 69.1735)
(-1.73342 2.22353 69.0739)
(-2.08705 2.44471 70.6828)
(-2.36806 2.33061 71.7667)
(-2.53535 2.0968 71.936)
(-2.60738 1.93228 71.4641)
(-2.47845 2.01542 70.619)
(-2.15143 2.31864 69.5977)
(-1.5989 2.74918 68.4191)
(-0.843921 3.46987 66.5698)
(-0.359134 4.48772 63.3943)
(-0.622701 5.51633 60.1927)
(-1.50342 6.31391 59.1013)
(-2.06644 6.74029 60.6629)
(-1.90221 6.91878 62.2974)
(-1.47225 6.99717 62.2288)
(-1.40455 6.87957 61.7673)
(-1.3426 6.36304 62.2178)
(-0.907456 5.77393 62.4315)
(-0.617198 4.77258 62.3042)
(0.398769 3.87056 63.1379)
(1.05584 2.77782 64.077)
(1.6494 2.06282 65.0742)
(1.70438 1.44164 65.2312)
(1.69357 0.922507 65.8587)
(1.39541 0.380361 66.6878)
(1.07182 -0.234838 67.4083)
(0.748244 -0.854603 67.4591)
(0.49303 -1.28483 66.6328)
(0.261943 -1.46778 65.3017)
(0.120728 -1.55631 64.0093)
(0.0282352 -1.50472 63.2658)
(-0.0467868 -1.39258 63.1855)
(-0.132829 -1.02287 63.6068)
(-0.252576 -0.558363 63.8254)
(-0.183526 -0.116456 63.2982)
(0.0512915 0.308709 62.3895)
(0.25875 0.715265 61.603)
(0.204216 0.592615 61.7653)
(0.00562728 -0.0524777 63.1118)
(-0.261251 -0.812394 65.0894)
(-0.273812 -1.42437 66.5864)
(0.408646 -1.37893 66.3201)
(1.15213 -0.260019 64.8124)
(1.00684 0.618261 65.6535)
(0.611481 0.98146 66.0769)
(0.433861 1.1061 65.6338)
(0.19556 1.10368 65.0687)
(-0.0484883 1.04423 64.0252)
(-0.370312 1.04628 62.2209)
(-0.722644 1.037 60.4793)
(-0.968141 0.943577 59.5151)
(-0.903927 0.639453 59.7572)
(-0.584137 0.247853 61.1182)
(-0.220575 -0.184393 62.8573)
(0.0318842 -0.476851 64.0732)
(-0.0405002 -0.272362 64.1923)
(-0.301506 0.301891 63.8625)
(-0.642452 0.924778 64.1338)
(-1.00917 1.41467 65.3205)
(-1.73342 2.22353 69.0739)
(-1.57024 2.539 68.5821)
(-1.95696 2.65594 70.2138)
(-2.25167 2.31671 71.2231)
(-2.45692 2.01445 71.3136)
(-2.67786 1.84236 70.9155)
(-2.64707 1.94001 69.9369)
(-2.39354 2.24924 68.6983)
(-1.87212 2.68867 67.6523)
(-0.9762 3.5638 66.4683)
(-0.189941 4.85161 63.849)
(-0.303775 6.13891 60.5623)
(-1.24657 6.99088 59.4836)
(-1.91002 7.24423 61.2066)
(-1.78785 7.21808 62.5714)
(-1.41699 7.20335 62.0414)
(-1.47612 7.10044 61.3805)
(-1.60775 6.62176 61.6517)
(-1.14166 6.13985 61.6521)
(-0.769867 5.22264 61.1974)
(0.500023 4.37685 61.7082)
(1.25945 3.17303 62.7162)
(1.97955 2.3886 64.2779)
(2.04083 1.72693 65.0866)
(1.99062 1.21863 66.1316)
(1.55946 0.676498 67.0766)
(1.18239 -0.0162117 67.8875)
(0.84938 -0.781976 68.0857)
(0.612712 -1.35093 67.3412)
(0.380335 -1.62633 66.0449)
(0.255962 -1.74638 64.757)
(0.172295 -1.58863 64.0809)
(0.0984692 -1.30364 64.1029)
(-0.0417223 -0.68334 64.442)
(-0.326463 -0.181176 64.1829)
(-0.321354 0.0873672 63.142)
(-0.0730327 0.446593 61.8706)
(0.162765 0.719698 61.0273)
(0.0357686 0.323539 61.4744)
(-0.277524 -0.55716 63.1644)
(-0.602415 -1.38673 65.2606)
(-0.516844 -1.92837 66.2956)
(0.652442 -1.5983 64.6017)
(1.66527 0.181149 61.5386)
(1.23134 1.31883 63.1348)
(0.498977 1.76545 64.559)
(0.203198 1.77691 64.5176)
(-0.0716688 1.62389 64.0699)
(-0.269185 1.42224 63.2153)
(-0.537806 1.26246 61.6802)
(-0.873403 1.06189 60.1714)
(-1.12179 0.874222 59.3294)
(-0.973366 0.583002 59.8932)
(-0.584941 0.262709 61.6042)
(-0.269376 -0.163129 63.2368)
(-0.0106805 -0.468083 63.9034)
(0.0764024 -0.169417 63.6634)
(-0.0235782 0.521297 63.511)
(-0.326305 1.25172 64.0136)
(-0.715204 1.79522 65.1184)
(-1.57024 2.539 68.5821)
(-1.38237 2.80603 67.8559)
(-1.74961 2.79912 69.4122)
(-2.02924 2.21318 70.2586)
(-2.26133 1.9079 70.6062)
(-2.63378 1.74028 70.5556)
(-2.71537 1.83748 69.5618)
(-2.58654 2.15997 68.0743)
(-2.11851 2.62854 66.9915)
(-1.13083 3.72068 66.249)
(-0.064819 5.24608 64.2489)
(-0.0179423 6.6675 60.9713)
(-1.01134 7.41001 59.7833)
(-1.80101 7.42252 61.4288)
(-1.79827 7.18347 62.4878)
(-1.52203 7.07642 61.8231)
(-1.63127 7.01602 61.0098)
(-1.93762 6.61427 61.1507)
(-1.38991 6.23085 61.304)
(-0.898253 5.49092 60.707)
(0.550486 4.76893 60.8387)
(1.40615 3.56363 61.6635)
(2.22408 2.71058 63.5253)
(2.29839 1.98432 64.8278)
(2.2054 1.4589 66.2409)
(1.64978 0.876753 67.2632)
(1.23755 0.105424 68.1551)
(0.908307 -0.775122 68.4467)
(0.676498 -1.44064 67.7531)
(0.445391 -1.7989 66.5341)
(0.342207 -1.92001 65.3092)
(0.263992 -1.64261 64.7562)
(0.182041 -1.15075 64.8941)
(-0.0279291 -0.26507 65.0798)
(-0.486984 0.215653 64.4234)
(-0.564024 0.289609 63.0104)
(-0.30462 0.60063 61.4799)
(-0.0212423 0.720746 60.671)
(-0.196387 0.103092 61.3281)
(-0.60715 -0.96746 63.2296)
(-0.958376 -1.77178 65.3085)
(-0.771254 -2.27621 65.5734)
(0.979291 -1.56391 62.3033)
(2.32237 0.859624 57.7674)
(1.48275 2.12801 59.9882)
(0.278984 2.65513 62.6609)
(-0.138634 2.55699 63.2866)
(-0.402346 2.25673 62.9085)
(-0.541086 1.94851 61.9011)
(-0.748776 1.66359 60.6782)
(-1.05069 1.28832 59.7571)
(-1.26172 0.939483 59.4021)
(-1.03503 0.581418 60.4737)
(-0.686839 0.236852 62.1827)
(-0.436856 -0.258096 63.1856)
(0.056607 -0.540179 63.2525)
(0.411488 -0.118403 63.1831)
(0.33505 0.697726 63.4366)
(-0.019825 1.53253 64.024)
(-0.434061 2.18099 64.569)
(-1.38237 2.80603 67.8559)
(-1.19415 3.03007 66.8708)
(-1.55476 2.89433 68.2849)
(-1.85289 2.09875 69.1649)
(-2.06333 1.81556 70.002)
(-2.50926 1.65399 70.3185)
(-2.6963 1.75054 69.3944)
(-2.73111 2.11049 67.7018)
(-2.34173 2.64568 66.4793)
(-1.31413 3.97652 65.977)
(-0.0029288 5.63033 64.5353)
(0.217147 7.00922 61.3805)
(-0.803877 7.54876 59.9634)
(-1.73816 7.38005 61.4324)
(-1.90527 7.01673 62.5007)
(-1.71607 6.90759 62.0215)
(-1.7792 6.90951 60.8397)
(-2.20169 6.68239 60.8282)
(-1.56381 6.29147 61.2407)
(-0.915547 5.68868 60.809)
(0.627893 5.03288 60.8738)
(1.54389 3.90897 61.4732)
(2.39581 3.02269 63.3067)
(2.48679 2.23082 64.7722)
(2.35337 1.66634 66.3457)
(1.69227 1.0026 67.3938)
(1.28258 0.142926 68.4325)
(0.961178 -0.81914 68.7109)
(0.702683 -1.53418 67.9563)
(0.476403 -1.97343 66.8158)
(0.38538 -2.05614 65.6937)
(0.303565 -1.66098 65.2557)
(0.227424 -0.94381 65.4081)
(-0.0777612 0.16413 65.4872)
(-0.643982 0.571414 64.5616)
(-0.83379 0.465372 62.8892)
(-0.564544 0.73672 61.2214)
(-0.235698 0.708183 60.5208)
(-0.468384 -0.064729 61.3086)
(-0.954353 -1.28504 63.3016)
(-1.32218 -1.96571 65.2411)
(-1.03491 -2.48225 64.4959)
(1.37582 -1.15685 59.8459)
(3.07493 1.7501 54.4844)
(1.76134 2.88427 56.8576)
(-0.00399051 3.43526 60.6046)
(-0.539843 3.27479 61.9408)
(-0.76775 2.88075 61.7248)
(-0.836559 2.47026 60.4492)
(-0.991148 2.04843 59.5146)
(-1.27483 1.52846 59.29)
(-1.44854 1.01906 59.629)
(-1.18405 0.550644 61.1582)
(-0.912362 0.0927951 62.4773)
(-0.507463 -0.454857 62.7183)
(0.419409 -0.650071 62.738)
(0.869571 -0.071634 63.104)
(0.628145 0.876284 63.6757)
(0.228373 1.79334 63.9729)
(-0.150432 2.58059 63.6367)
(-1.19415 3.03007 66.8708)
(-1.07725 3.2491 65.487)
(-1.4939 2.99049 66.8841)
(-1.88143 2.03739 68.1178)
(-1.99934 1.75158 69.4686)
(-2.39343 1.60783 70.004)
(-2.63237 1.71921 69.2198)
(-2.82397 2.13792 67.361)
(-2.53842 2.78084 65.9406)
(-1.51804 4.30547 65.6168)
(-0.0334987 5.93567 64.6811)
(0.388951 7.13775 61.6981)
(-0.608204 7.47668 60.0022)
(-1.69251 7.23163 61.4898)
(-2.03325 6.89564 63.0987)
(-1.91531 6.77928 62.7835)
(-1.86366 6.78507 60.8591)
(-2.35843 6.81152 60.6568)
(-1.68443 6.38998 61.1321)
(-0.855841 5.87568 61.001)
(0.719551 5.1933 61.3777)
(1.6614 4.16106 62.1115)
(2.50205 3.2945 63.7164)
(2.60336 2.45 65.0413)
(2.42292 1.81887 66.5335)
(1.69254 1.05919 67.6097)
(1.32045 0.112987 68.8491)
(1.01525 -0.887183 68.9715)
(0.69082 -1.6169 68.0316)
(0.474527 -2.13294 66.9085)
(0.383653 -2.15682 65.8921)
(0.282148 -1.64526 65.4302)
(0.21825 -0.703193 65.4353)
(-0.240607 0.555164 65.5941)
(-0.788079 0.861271 64.5404)
(-1.08701 0.609086 62.7189)
(-0.792933 0.82841 61.0341)
(-0.421824 0.668062 60.5153)
(-0.734098 -0.195943 61.3939)
(-1.28117 -1.53009 63.38)
(-1.68785 -2.02424 64.9545)
(-1.25402 -2.53807 63.1943)
(1.82047 -0.308128 57.6504)
(3.82774 2.75337 52.2393)
(2.0361 3.47565 54.3436)
(-0.297165 3.96369 58.5967)
(-0.929311 3.77055 60.4721)
(-1.1392 3.37381 60.5296)
(-1.1544 2.85131 59.169)
(-1.28177 2.22907 58.6002)
(-1.57174 1.58064 58.9714)
(-1.71397 0.985884 59.9648)
(-1.45765 0.400685 61.7117)
(-1.16172 -0.170863 62.4245)
(-0.342105 -0.710902 62.2829)
(0.917705 -0.804074 62.6053)
(1.17707 -0.0380736 63.3611)
(0.747525 1.0234 64.184)
(0.395597 1.96083 63.9217)
(0.120367 2.94377 62.7413)
(-1.07725 3.2491 65.487)
(-1.10973 3.46647 63.7774)
(-1.61472 3.11221 65.3769)
(-2.13049 2.03968 67.1011)
(-2.09959 1.69545 68.8376)
(-2.36071 1.60156 69.5663)
(-2.56649 1.74792 68.9501)
(-2.86112 2.23039 66.9245)
(-2.67777 2.98422 65.2997)
(-1.73135 4.63932 65.1782)
(-0.162637 6.12884 64.6589)
(0.503473 7.08789 61.7953)
(-0.418006 7.27949 59.902)
(-1.61329 7.08868 61.8528)
(-2.14526 6.92043 64.3104)
(-2.14172 6.52357 63.9202)
(-1.90071 6.4406 61.1457)
(-2.42189 6.71372 60.7454)
(-1.76195 6.34045 61.0473)
(-0.796822 5.93239 61.092)
(0.766971 5.22237 61.8447)
(1.72781 4.26801 63.0237)
(2.53716 3.47552 64.4562)
(2.62357 2.59717 65.5221)
(2.38599 1.8871 66.8415)
(1.6625 1.0462 67.99)
(1.34301 0.0420901 69.3783)
(1.05095 -0.957111 69.2261)
(0.624661 -1.67744 68.0221)
(0.427309 -2.27582 66.7922)
(0.335981 -2.21999 65.8229)
(0.204701 -1.60632 65.1057)
(0.138408 -0.43922 64.8944)
(-0.541823 0.895558 65.2)
(-0.971757 1.08047 64.2222)
(-1.32467 0.717059 62.424)
(-0.979524 0.872524 60.8588)
(-0.554877 0.600812 60.5933)
(-0.959672 -0.305446 61.5583)
(-1.57521 -1.71088 63.4255)
(-2.02999 -2.00827 64.3917)
(-1.3576 -2.41283 61.8425)
(2.33646 0.823136 55.9915)
(4.49988 3.65411 50.8801)
(2.28814 3.82073 52.7856)
(-0.544117 4.20257 56.8608)
(-1.22981 3.96846 58.9204)
(-1.48235 3.64224 59.3349)
(-1.50724 2.96832 58.2843)
(-1.64918 2.0885 58.2802)
(-1.93353 1.33223 59.148)
(-2.04923 0.766341 60.4945)
(-1.82235 0.0968576 62.0612)
(-1.33555 -0.513905 62.2019)
(-0.0422194 -1.02095 62.0923)
(1.23857 -1.03237 62.6002)
(1.19356 -0.0729319 63.6943)
(0.728218 1.07227 64.7859)
(0.471812 1.97538 64.0534)
(0.292058 3.20147 62.282)
(-1.10973 3.46647 63.7774)
(-1.29837 3.63848 61.9929)
(-1.86748 3.2307 63.9753)
(-2.50136 2.06591 66.0529)
(-2.29302 1.62492 67.9906)
(-2.43372 1.61694 69.0544)
(-2.52292 1.80679 68.5955)
(-2.84072 2.35497 66.3858)
(-2.7302 3.20288 64.5729)
(-1.9088 4.93313 64.648)
(-0.363343 6.21737 64.4547)
(0.564469 6.90374 61.647)
(-0.219754 7.03361 59.7567)
(-1.47029 7.04369 62.5415)
(-2.2808 7.12397 65.7967)
(-2.45134 6.13489 65.1595)
(-1.89734 5.8916 61.8896)
(-2.38017 6.27756 61.2732)
(-1.7746 6.03018 61.202)
(-0.749512 5.78652 61.176)
(0.773609 5.09609 62.2084)
(1.73437 4.20302 63.8761)
(2.49207 3.51821 65.2362)
(2.5389 2.63573 66.0737)
(2.26863 1.87804 67.2865)
(1.62825 0.979053 68.4968)
(1.3635 -0.034602 69.9097)
(1.05473 -1.00588 69.4471)
(0.483551 -1.70432 67.9416)
(0.325246 -2.42466 66.4637)
(0.247414 -2.26256 65.3605)
(0.109412 -1.55151 64.2846)
(0.0103829 -0.15006 63.8982)
(-0.888533 1.17595 64.1582)
(-1.22495 1.22978 63.4768)
(-1.55564 0.783033 61.9428)
(-1.1407 0.879787 60.6481)
(-0.641582 0.516065 60.6956)
(-1.13262 -0.394967 61.7544)
(-1.84459 -1.82951 63.3643)
(-2.31659 -1.96421 63.5903)
(-1.30327 -2.08538 60.5854)
(2.94856 1.93095 54.9648)
(5.04026 4.28248 50.0986)
(2.52302 3.83114 52.1999)
(-0.709385 4.15973 55.5856)
(-1.40773 3.87043 57.474)
(-1.79276 3.63901 58.2669)
(-1.91993 2.76953 57.8911)
(-2.09621 1.64946 58.6904)
(-2.2999 0.813874 60.0332)
(-2.41744 0.358759 61.2718)
(-2.22177 -0.345512 62.2618)
(-1.43614 -0.90823 61.9383)
(0.175637 -1.39966 61.9458)
(1.18841 -1.36748 62.313)
(0.950983 -0.236618 63.7863)
(0.625433 0.97472 65.3416)
(0.504852 1.83765 64.4525)
(0.341101 3.32523 62.2856)
(-1.29837 3.63848 61.9929)
(-1.56756 3.73739 60.4817)
(-2.17377 3.29989 62.8439)
(-2.86535 2.06099 64.9972)
(-2.50519 1.52682 66.9835)
(-2.57833 1.63767 68.5046)
(-2.51532 1.87198 68.1766)
(-2.77405 2.48277 65.7839)
(-2.69655 3.3979 63.7954)
(-2.02537 5.15376 63.9924)
(-0.608192 6.19878 64.0129)
(0.595821 6.6231 61.2692)
(0.00426619 6.80735 59.6851)
(-1.23846 7.14951 63.3558)
(-2.4364 7.47282 67.1502)
(-2.82232 5.72213 65.9804)
(-1.87737 5.30338 63.0513)
(-2.26701 5.56514 62.1558)
(-1.72771 5.44525 61.5721)
(-0.699424 5.43138 61.2894)
(0.762667 4.83386 62.4921)
(1.69805 3.98529 64.6154)
(2.39613 3.42746 65.9475)
(2.41052 2.59657 66.623)
(2.16573 1.83596 67.8447)
(1.65096 0.906411 69.0452)
(1.40453 -0.0794901 70.3858)
(1.01176 -1.02012 69.5954)
(0.266303 -1.69729 67.7947)
(0.183421 -2.59357 65.9164)
(0.161325 -2.2973 64.4903)
(0.051598 -1.48549 63.1081)
(-0.13766 0.149803 62.6877)
(-1.14195 1.39488 62.6917)
(-1.49435 1.33944 62.3932)
(-1.78294 0.81682 61.2909)
(-1.30451 0.872468 60.3798)
(-0.703076 0.421872 60.771)
(-1.25515 -0.470609 61.8778)
(-2.08884 -1.91176 63.12)
(-2.51677 -1.92706 62.6502)
(-1.14696 -1.58616 59.5826)
(3.58039 2.79901 54.439)
(5.43076 4.60889 49.6971)
(2.74629 3.50878 52.4172)
(-0.759878 3.8812 54.8129)
(-1.46574 3.52125 56.3448)
(-2.08285 3.38338 57.4983)
(-2.38867 2.31402 57.9372)
(-2.58093 1.04083 59.6873)
(-2.62374 0.14357 61.4839)
(-2.78175 -0.185445 62.2436)
(-2.61259 -0.883394 62.3982)
(-1.52369 -1.35099 61.6065)
(0.135689 -1.85231 61.4875)
(0.804178 -1.77242 61.5539)
(0.510483 -0.569835 63.4578)
(0.409819 0.696019 65.6202)
(0.451769 1.555 64.9508)
(0.277413 3.3184 62.8079)
(-1.56756 3.73739 60.4817)
(-1.81992 3.76193 59.6624)
(-2.45355 3.29599 62.0066)
(-3.13325 2.00553 64.0039)
(-2.69484 1.41198 65.9681)
(-2.74497 1.65262 67.9132)
(-2.54752 1.93236 67.6847)
(-2.68463 2.59705 65.1643)
(-2.60056 3.55092 63.013)
(-2.06743 5.28958 63.2084)
(-0.858055 6.07168 63.3265)
(0.613405 6.26267 60.7662)
(0.263754 6.63404 59.7509)
(-0.918717 7.36324 64.0604)
(-2.61269 7.82907 68.0626)
(-3.17701 5.17707 65.6716)
(-1.89056 4.74026 64.1663)
(-2.15787 4.65307 63.004)
(-1.64152 4.65242 61.9358)
(-0.627371 4.89647 61.3701)
(0.757467 4.45801 62.6876)
(1.66054 3.65698 65.2072)
(2.30867 3.25987 66.5133)
(2.33099 2.53845 67.1087)
(2.1671 1.8252 68.4159)
(1.76146 0.868045 69.5473)
(1.46732 -0.0692879 70.7384)
(0.923048 -0.989401 69.6087)
(0.032781 -1.65828 67.5855)
(0.0427959 -2.77849 65.3396)
(0.100704 -2.33451 63.3648)
(0.0268227 -1.41566 61.7789)
(-0.311205 0.436596 61.5695)
(-1.26713 1.54779 61.1608)
(-1.70871 1.43969 61.223)
(-2.00189 0.840156 60.5546)
(-1.48951 0.867958 60.058)
(-0.760317 0.323028 60.7836)
(-1.33739 -0.544803 61.8447)
(-2.31121 -1.98005 62.57)
(-2.61506 -1.90417 61.6553)
(-0.956749 -0.992304 58.9462)
(4.13467 3.40988 54.1633)
(5.65808 4.7061 49.5331)
(2.93755 3.00329 53.1448)
(-0.683172 3.46129 54.5251)
(-1.43771 3.00319 55.6527)
(-2.35847 2.94365 57.0711)
(-2.88028 1.71207 58.2881)